DSS_Fox_chase/EV_loads_0.8.dss
New Load.ev_1 bus1=house_1.1.2 kV=0.24 kW=8.042 kvar=0.000 Phases=2 daily=Class_2_L2_Medium_EV_011_daily
New Load.ev_4 bus1=house_4.1.2 kV=0.24 kW=7.974 kvar=0.000 Phases=2 daily=Class_2_L2_Medium_EV_097_daily
New Load.ev_6 bus1=house_6.1.2 kV=0.24 kW=9.630 kvar=0.000 Phases=2 daily=Class_2_L2_Medium_EV_177_daily
New Load.ev_10 bus1=house_10.1.2 kV=0.24 kW=6.883 kvar=0.000 Phases=2 daily=Class_2_L2_Medium_EV_213_daily
New Load.ev_11 bus1=house_11.1.2 kV=0.24 kW=6.883 kvar=0.000 Phases=2 daily=Class_2_L2_Medium_EV_213_daily
New Load.ev_12 bus1=house_12.1.2 kV=0.24 kW=9.087 kvar=0.000 Phases=2 daily=Class_2_L2_Medium_EV_228_daily
New Load.ev_13 bus1=house_13.1.2 kV=0.24 kW=7.437 kvar=0.000 Phases=2 daily=Class_2_L2_Medium_EV_151_daily
New Load.ev_15 bus1=house_15.1.2 kV=0.24 kW=9.081 kvar=0.000 Phases=2 daily=Class_2_L2_Medium_EV_221_daily
New Load.ev_16 bus1=house_16.1.2 kV=0.24 kW=7.680 kvar=0.000 Phases=2 daily=Class_2_L2_Medium_EV_160_daily
New Load.ev_18 bus1=house_18.1.2 kV=0.24 kW=7.453 kvar=0.000 Phases=2 daily=Class_2_L2_Medium_EV_217_daily
New Load.ev_19 bus1=house_19.1.2 kV=0.24 kW=9.682 kvar=0.000 Phases=2 daily=Class_2_L2_Medium_EV_100_daily
New Load.ev_23 bus1=house_23.1.2 kV=0.24 kW=6.883 kvar=0.000 Phases=2 daily=Class_2_L2_Medium_EV_213_daily
New Load.ev_24 bus1=house_24.1.2 kV=0.24 kW=9.682 kvar=0.000 Phases=2 daily=Class_2_L2_Medium_EV_100_daily
New Load.ev_25 bus1=house_25.1.2 kV=0.24 kW=10.197 kvar=0.000 Phases=2 daily=Class_2_L2_Medium_EV_163_daily
New Load.ev_28 bus1=house_28.1.2 kV=0.24 kW=7.214 kvar=0.000 Phases=2 daily=Class_2_L2_Medium_EV_089_daily
New Load.ev_29 bus1=house_29.1.2 kV=0.24 kW=6.811 kvar=0.000 Phases=2 daily=Class_2_L2_Medium_EV_178_daily
New Load.ev_31 bus1=house_31.1.2 kV=0.24 kW=9.220 kvar=0.000 Phases=2 daily=Class_2_L2_Medium_EV_242_daily
New Load.ev_33 bus1=house_33.1.2 kV=0.24 kW=10.569 kvar=0.000 Phases=2 daily=Class_2_L2_Medium_EV_132_daily
New Load.ev_35 bus1=house_35.1.2 kV=0.24 kW=6.994 kvar=0.000 Phases=2 daily=Class_2_L2_Medium_EV_237_daily
New Load.ev_37 bus1=house_37.1.2 kV=0.24 kW=7.350 kvar=0.000 Phases=2 daily=Class_2_L2_Medium_EV_131_daily
New Load.ev_39 bus1=house_39.1.2 kV=0.24 kW=7.865 kvar=0.000 Phases=2 daily=Class_2_L2_Medium_EV_040_daily
New Load.ev_40 bus1=house_40.1.2 kV=0.24 kW=3.332 kvar=0.000 Phases=2 daily=Class_2_L2_Medium_EV_058_daily
New Load.ev_41 bus1=house_41.1.2 kV=0.24 kW=7.462 kvar=0.000 Phases=2 daily=Class_2_L2_Medium_EV_031_daily
New Load.ev_42 bus1=house_42.1.2 kV=0.24 kW=9.451 kvar=0.000 Phases=2 daily=Class_2_L2_Medium_EV_202_daily
New Load.ev_43 bus1=house_43.1.2 kV=0.24 kW=2.240 kvar=0.000 Phases=2 daily=Class_2_L2_Medium_EV_190_daily
New Load.ev_44 bus1=house_44.1.2 kV=0.24 kW=3.583 kvar=0.000 Phases=2 daily=Class_2_L2_Medium_EV_152_daily
New Load.ev_46 bus1=house_46.1.2 kV=0.24 kW=6.668 kvar=0.000 Phases=2 daily=Class_2_L2_Medium_EV_187_daily
New Load.ev_47 bus1=house_47.1.2 kV=0.24 kW=7.840 kvar=0.000 Phases=2 daily=Class_2_L2_Medium_EV_247_daily
New Load.ev_48 bus1=house_48.1.2 kV=0.24 kW=9.630 kvar=0.000 Phases=2 daily=Class_2_L2_Medium_EV_177_daily
New Load.ev_49 bus1=house_49.1.2 kV=0.24 kW=7.494 kvar=0.000 Phases=2 daily=Class_2_L2_Medium_EV_195_daily
New Load.ev_50 bus1=house_50.1.2 kV=0.24 kW=9.540 kvar=0.000 Phases=2 daily=Class_2_L2_Medium_EV_183_daily
New Load.ev_51 bus1=house_51.1.2 kV=0.24 kW=8.392 kvar=0.000 Phases=2 daily=Class_2_L2_Medium_EV_179_daily
New Load.ev_52 bus1=house_52.1.2 kV=0.24 kW=7.930 kvar=0.000 Phases=2 daily=Class_2_L2_Medium_EV_236_daily
New Load.ev_53 bus1=house_53.1.2 kV=0.24 kW=9.628 kvar=0.000 Phases=2 daily=Class_2_L2_Medium_EV_066_daily
New Load.ev_54 bus1=house_54.1.2 kV=0.24 kW=7.050 kvar=0.000 Phases=2 daily=Class_2_L2_Medium_EV_136_daily
New Load.ev_57 bus1=house_57.1.2 kV=0.24 kW=9.411 kvar=0.000 Phases=2 daily=Class_2_L2_Medium_EV_035_daily
New Load.ev_58 bus1=house_58.1.2 kV=0.24 kW=10.226 kvar=0.000 Phases=2 daily=Class_2_L2_Medium_EV_105_daily
New Load.ev_59 bus1=house_59.1.2 kV=0.24 kW=9.896 kvar=0.000 Phases=2 daily=Class_2_L2_Medium_EV_117_daily
New Load.ev_60 bus1=house_60.1.2 kV=0.24 kW=9.733 kvar=0.000 Phases=2 daily=Class_2_L2_Medium_EV_238_daily
New Load.ev_61 bus1=house_61.1.2 kV=0.24 kW=1.705 kvar=0.000 Phases=2 daily=Class_2_L2_Medium_EV_176_daily
New Load.ev_62 bus1=house_62.1.2 kV=0.24 kW=9.863 kvar=0.000 Phases=2 daily=Class_2_L2_Medium_EV_145_daily
New Load.ev_64 bus1=house_64.1.2 kV=0.24 kW=6.149 kvar=0.000 Phases=2 daily=Class_2_L2_Medium_EV_039_daily
New Load.ev_67 bus1=house_67.1.2 kV=0.24 kW=8.996 kvar=0.000 Phases=2 daily=Class_2_L2_Medium_EV_241_daily
New Load.ev_68 bus1=house_68.1.2 kV=0.24 kW=2.815 kvar=0.000 Phases=2 daily=Class_2_L2_Medium_EV_084_daily
New Load.ev_70 bus1=house_70.1.2 kV=0.24 kW=9.028 kvar=0.000 Phases=2 daily=Class_2_L2_Medium_EV_165_daily
New Load.ev_71 bus1=house_71.1.2 kV=0.24 kW=9.639 kvar=0.000 Phases=2 daily=Class_2_L2_Medium_EV_194_daily
New Load.ev_72 bus1=house_72.1.2 kV=0.24 kW=8.137 kvar=0.000 Phases=2 daily=Class_2_L2_Medium_EV_078_daily
New Load.ev_73 bus1=house_73.1.2 kV=0.24 kW=9.878 kvar=0.000 Phases=2 daily=Class_2_L2_Medium_EV_036_daily
New Load.ev_74 bus1=house_74.1.2 kV=0.24 kW=1.705 kvar=0.000 Phases=2 daily=Class_2_L2_Medium_EV_176_daily
New Load.ev_75 bus1=house_75.1.2 kV=0.24 kW=2.441 kvar=0.000 Phases=2 daily=Class_2_L2_Medium_EV_227_daily
New Load.ev_76 bus1=house_76.1.2 kV=0.24 kW=8.675 kvar=0.000 Phases=2 daily=Class_2_L2_Medium_EV_232_daily
New Load.ev_77 bus1=house_77.1.2 kV=0.24 kW=4.729 kvar=0.000 Phases=2 daily=Class_2_L2_Medium_EV_063_daily
New Load.ev_80 bus1=house_80.1.2 kV=0.24 kW=4.660 kvar=0.000 Phases=2 daily=Class_2_L2_Medium_EV_175_daily
New Load.ev_81 bus1=house_81.1.2 kV=0.24 kW=7.636 kvar=0.000 Phases=2 daily=Class_2_L2_Medium_EV_051_daily
New Load.ev_82 bus1=house_82.1.2 kV=0.24 kW=8.529 kvar=0.000 Phases=2 daily=Class_2_L2_Medium_EV_061_daily
New Load.ev_83 bus1=house_83.1.2 kV=0.24 kW=9.451 kvar=0.000 Phases=2 daily=Class_2_L2_Medium_EV_202_daily
New Load.ev_84 bus1=house_84.1.2 kV=0.24 kW=7.594 kvar=0.000 Phases=2 daily=Class_2_L2_Medium_EV_033_daily
New Load.ev_85 bus1=house_85.1.2 kV=0.24 kW=7.521 kvar=0.000 Phases=2 daily=Class_2_L2_Medium_EV_077_daily
New Load.ev_86 bus1=house_86.1.2 kV=0.24 kW=3.963 kvar=0.000 Phases=2 daily=Class_2_L2_Medium_EV_248_daily
New Load.ev_87 bus1=house_87.1.2 kV=0.24 kW=7.259 kvar=0.000 Phases=2 daily=Class_2_L2_Medium_EV_041_daily
New Load.ev_88 bus1=house_88.1.2 kV=0.24 kW=8.244 kvar=0.000 Phases=2 daily=Class_2_L2_Medium_EV_049_daily
New Load.ev_89 bus1=house_89.1.2 kV=0.24 kW=7.258 kvar=0.000 Phases=2 daily=Class_2_L2_Medium_EV_096_daily
New Load.ev_90 bus1=house_90.1.2 kV=0.24 kW=8.196 kvar=0.000 Phases=2 daily=Class_2_L2_Medium_EV_220_daily
New Load.ev_91 bus1=house_91.1.2 kV=0.24 kW=6.668 kvar=0.000 Phases=2 daily=Class_2_L2_Medium_EV_187_daily
New Load.ev_92 bus1=house_92.1.2 kV=0.24 kW=8.392 kvar=0.000 Phases=2 daily=Class_2_L2_Medium_EV_179_daily
New Load.ev_93 bus1=house_93.1.2 kV=0.24 kW=6.883 kvar=0.000 Phases=2 daily=Class_2_L2_Medium_EV_213_daily
New Load.ev_95 bus1=house_95.1.2 kV=0.24 kW=7.867 kvar=0.000 Phases=2 daily=Class_2_L2_Medium_EV_116_daily
New Load.ev_96 bus1=house_96.1.2 kV=0.24 kW=8.988 kvar=0.000 Phases=2 daily=Class_2_L2_Medium_EV_210_daily
New Load.ev_97 bus1=house_97.1.2 kV=0.24 kW=9.843 kvar=0.000 Phases=2 daily=Class_2_L2_Medium_EV_184_daily
New Load.ev_99 bus1=house_99.1.2 kV=0.24 kW=9.000 kvar=0.000 Phases=2 daily=Class_2_L2_Medium_EV_047_daily
New Load.ev_100 bus1=house_100.1.2 kV=0.24 kW=6.615 kvar=0.000 Phases=2 daily=Class_2_L2_Medium_EV_093_daily
New Load.ev_101 bus1=house_101.1.2 kV=0.24 kW=7.840 kvar=0.000 Phases=2 daily=Class_2_L2_Medium_EV_247_daily
New Load.ev_103 bus1=house_103.1.2 kV=0.24 kW=7.030 kvar=0.000 Phases=2 daily=Class_2_L2_Medium_EV_090_daily
New Load.ev_105 bus1=house_105.1.2 kV=0.24 kW=1.567 kvar=0.000 Phases=2 daily=Class_2_L2_Medium_EV_159_daily
New Load.ev_106 bus1=house_106.1.2 kV=0.24 kW=7.462 kvar=0.000 Phases=2 daily=Class_2_L2_Medium_EV_031_daily
New Load.ev_107 bus1=house_107.1.2 kV=0.24 kW=8.244 kvar=0.000 Phases=2 daily=Class_2_L2_Medium_EV_049_daily
New Load.ev_108 bus1=house_108.1.2 kV=0.24 kW=7.382 kvar=0.000 Phases=2 daily=Class_2_L2_Medium_EV_111_daily
New Load.ev_109 bus1=house_109.1.2 kV=0.24 kW=7.906 kvar=0.000 Phases=2 daily=Class_2_L2_Medium_EV_161_daily
New Load.ev_111 bus1=house_111.1.2 kV=0.24 kW=9.946 kvar=0.000 Phases=2 daily=Class_2_L2_Medium_EV_223_daily
New Load.ev_112 bus1=house_112.1.2 kV=0.24 kW=8.721 kvar=0.000 Phases=2 daily=Class_2_L2_Medium_EV_109_daily
New Load.ev_113 bus1=house_113.1.2 kV=0.24 kW=7.655 kvar=0.000 Phases=2 daily=Class_2_L2_Medium_EV_085_daily
New Load.ev_114 bus1=house_114.1.2 kV=0.24 kW=2.576 kvar=0.000 Phases=2 daily=Class_2_L2_Medium_EV_029_daily
New Load.ev_115 bus1=house_115.1.2 kV=0.24 kW=9.087 kvar=0.000 Phases=2 daily=Class_2_L2_Medium_EV_228_daily
New Load.ev_118 bus1=house_118.1.2 kV=0.24 kW=7.030 kvar=0.000 Phases=2 daily=Class_2_L2_Medium_EV_090_daily
New Load.ev_121 bus1=house_121.1.2 kV=0.24 kW=8.392 kvar=0.000 Phases=2 daily=Class_2_L2_Medium_EV_179_daily